%chk=frg_mp2.chk
%mem=250GB
%nprocshared=4
# opt=tight mp2/6-31g(d) nosymm pop=(mk,dipole) density=current

frg_mp2 opt

0 1
 C                 -1.98130542    0.07700063    0.00000000
 C                 -2.67056542    1.33528263    0.00000000
 C                 -0.51711742    2.49039663    0.00000000
 C                  0.19302658    1.33528263    0.00000000
 C                 -0.05335642   -1.21453737    0.00000000
 C                 -1.23876942   -2.14404837    0.00000000
 H                 -3.77014342    1.32770463    0.00000000
 H                 -0.01096842    3.46738663    0.00000000
 H                  1.29260458    1.32770463    0.00000000
 H                 -1.23876942   -2.79663437    0.90929000
 N                 -1.96042142    2.49039663    0.00000000
 N                 -0.49623342    0.07700063    0.00000000
 N                 -2.42418242   -1.21453737    0.00000000
 O                  1.29479086   -1.69140100    0.00000000
 O                 -1.23876942   -2.97783375   -1.16176673
 O                 -1.59734060   -4.20275245   -0.82501628
 H                 -1.60386858   -4.76089361   -1.60606419



--LINK1--
%chk=frg_mp2.chk
%mem=250GB
%nprocshared=4
#MP2/6-31G* NOSYMM GEOM=ALLCHECK FREQ IOP(7/33=1)

frg_mp2 FREQUENCY

0 1

